<?xml version="1.0" encoding="UTF-8"?>

<!-- generated on 2021-08-15 21:41:56 by Eclipse SUMO netedit Version 1.9.2
<configuration xmlns:xsi="http://www.w3.org/2001/XMLSchema-instance" xsi:noNamespaceSchemaLocation="http://sumo.dlr.de/xsd/netconvertConfiguration.xsd">

    <output>
        <output-file value="/Users/jaceguayzukoski/Documents/git/pos_big_data_12_artigo/teste_sim/malha_osm.net.xml"/>
    </output>

    <processing>
        <offset.disable-normalization value="true"/>
    </processing>

    <junctions>
        <no-turnarounds value="true"/>
    </junctions>

    <report>
        <aggregate-warnings value="5"/>
    </report>

</configuration>
-->

<net version="1.9" junctionCornerDetail="5" limitTurnSpeed="5.50" xmlns:xsi="http://www.w3.org/2001/XMLSchema-instance" xsi:noNamespaceSchemaLocation="http://sumo.dlr.de/xsd/net_file.xsd">

    <location netOffset="0.00,0.00" convBoundary="30434.64,6319616.42,30762.04,6319797.88" origBoundary="10000000000.00,10000000000.00,-10000000000.00,-10000000000.00" projParameter="!"/>

    <edge id="gneE0" from="gneJ0" to="gneJ1" priority="-1">
        <lane id="gneE0_0" index="0" speed="13.89" length="374.32" shape="30435.41,6319615.02 30762.82,6319796.48"/>
    </edge>

    <junction id="gneJ0" type="dead_end" x="30434.64" y="6319616.42" incLanes="" intLanes="" shape="30434.64,6319616.42 30436.19,6319613.62"/>
    <junction id="gneJ1" type="dead_end" x="30762.04" y="6319797.88" incLanes="gneE0_0" intLanes="" shape="30763.59,6319795.08 30762.04,6319797.88"/>

</net>
