<?xml version="1.0" encoding="UTF-8"?>

<!-- generated on 2021-09-07 15:49:03 by Eclipse SUMO netedit Version 1.10.0
<configuration xmlns:xsi="http://www.w3.org/2001/XMLSchema-instance" xsi:noNamespaceSchemaLocation="http://sumo.dlr.de/xsd/netconvertConfiguration.xsd">

    <input>
        <sumo-net-file value="/Users/jaceguayzukoski/Documents/git/pos_big_data_12_artigo/proposta_b/malha.net.xml"/>
    </input>

    <output>
        <output-file value="/Users/jaceguayzukoski/Documents/git/pos_big_data_12_artigo/proposta_b/malha.net.xml"/>
        <output.street-names value="true"/>
    </output>

    <processing>
        <geometry.min-radius.fix.railways value="false"/>
        <geometry.max-grade.fix value="false"/>
        <offset.disable-normalization value="true"/>
        <lefthand value="false"/>
    </processing>

    <junctions>
        <no-internal-links value="true"/>
        <no-turnarounds value="true"/>
        <junctions.corner-detail value="5"/>
        <junctions.limit-turn-speed value="5.5"/>
        <rectangular-lane-cut value="false"/>
    </junctions>

    <pedestrian>
        <walkingareas value="false"/>
    </pedestrian>

    <report>
        <aggregate-warnings value="5"/>
    </report>

</configuration>
-->

<net version="1.9" junctionCornerDetail="5" limitTurnSpeed="5.50" xmlns:xsi="http://www.w3.org/2001/XMLSchema-instance" xsi:noNamespaceSchemaLocation="http://sumo.dlr.de/xsd/net_file.xsd">

    <location netOffset="0.00,0.00" convBoundary="730389.40,7019641.18,730854.71,7020000.25" origBoundary="-10000000000.00,-10000000000.00,10000000000.00,10000000000.00" projParameter="!"/>

    <edge id="gneE0" from="gneJ31" to="gneJ32" name="Av.Ver.Abrahão João Francisco" priority="4" spreadType="center">
        <lane id="gneE0_0" index="0" speed="16.00" length="210.12" shape="730392.09,7019639.90 730560.53,7019765.32"/>
        <lane id="gneE0_1" index="1" speed="16.00" length="210.12" shape="730390.17,7019642.46 730558.62,7019767.89"/>
        <param key="vmax" value="16"/>
        <param key="vmin" value="11.2"/>
    </edge>
    <edge id="gneE1" from="gneJ32" to="gneJ33" name="Av.Ver.Abrahão João Francisco" priority="4" spreadType="center">
        <lane id="gneE1_0" index="0" speed="8.50" length="103.80" shape="730560.62,7019765.38 730643.11,7019818.83"/>
        <lane id="gneE1_1" index="1" speed="8.50" length="103.80" shape="730558.88,7019768.07 730641.37,7019821.52"/>
        <param key="vmax" value="4.66"/>
        <param key="vmin" value="2.55"/>
    </edge>
    <edge id="gneE10" from="gneJ44" to="gneJ45" name="R.Pres.João Goulart" priority="1" spreadType="center">
        <lane id="gneE10_0" index="0" speed="11.00" length="57.67" shape="730471.79,7019861.27 730528.91,7019854.49"/>
        <param key="vmax" value="11"/>
        <param key="vmin" value="7.7"/>
    </edge>
    <edge id="gneE11" from="gneJ45" to="gneJ46" name="R.Pres.João Goulart" priority="1" spreadType="center">
        <lane id="gneE11_0" index="0" speed="11.00" length="73.62" shape="730529.21,7019854.45 730602.07,7019845.90"/>
        <param key="vmax" value="7.69"/>
        <param key="vmin" value="6.05"/>
    </edge>
    <edge id="gneE12" from="gneJ46" to="gneJ41" name="R.Pres.João Goulart" priority="1" spreadType="center" shape="730602.18,7019845.89 730633.94,7019843.35">
        <lane id="gneE12_0" index="0" speed="13.89" length="32.02" shape="730602.30,7019845.88 730622.27,7019844.28"/>
        <param key="vmax" value="6.04"/>
        <param key="vmin" value="3.3"/>
    </edge>
    <edge id="gneE13" from="gneJ41" to="gneJ47" name="R.Pres.João Goulart" priority="1" spreadType="center" shape="730634.34,7019846.52 730472.10,7019865.86">
        <lane id="gneE13_0" index="0" speed="11.00" length="163.47" shape="730622.70,7019847.91 730472.10,7019865.86"/>
        <param key="vmax" value="11"/>
        <param key="vmin" value="7.7"/>
    </edge>
    <edge id="gneE14" from="gneJ41" to="gneJ33" priority="5" spreadType="center" shape="730634.12,7019844.94 730636.73,7019831.12 730646.77,7019823.11">
        <lane id="gneE14_0" index="0" speed="8.50" length="26.91" shape="730635.71,7019836.53 730636.73,7019831.12 730641.65,7019827.19"/>
        <param key="vmax" value="5.94"/>
        <param key="vmin" value="4.67"/>
    </edge>
    <edge id="gneE15" from="gneJ35" to="gneJ39" priority="5" spreadType="center" shape="730685.88,7019846.41 730686.51,7019866.44 730677.26,7019877.23">
        <lane id="gneE15_0" index="0" speed="8.50" length="34.25" shape="730687.80,7019856.56 730688.13,7019867.01 730683.40,7019872.53"/>
        <lane id="gneE15_1" index="1" speed="8.50" length="34.25" shape="730684.60,7019856.66 730684.89,7019865.87 730680.97,7019870.45"/>
        <param key="vmax" value="5.94"/>
        <param key="vmin" value="4.67"/>
    </edge>
    <edge id="gneE16" from="gneJ39" to="gneJ48" name="R.José Siqueira" priority="3" spreadType="center">
        <lane id="gneE16_0" index="0" speed="11.00" length="29.30" shape="730677.94,7019886.77 730676.52,7019901.39"/>
        <lane id="gneE16_1" index="1" speed="11.00" length="29.30" shape="730674.76,7019886.46 730673.34,7019901.08"/>
        <param key="vmax" value="11"/>
        <param key="vmin" value="7.7"/>
    </edge>
    <edge id="gneE17" from="gneJ48" to="gneJ49" name="R.José Siqueira" priority="3" spreadType="center">
        <lane id="gneE17_0" index="0" speed="11.00" length="94.97" shape="730675.06,7019912.81 730661.51,7020000.49"/>
        <lane id="gneE17_1" index="1" speed="11.00" length="94.97" shape="730671.89,7019912.32 730658.35,7020000.01"/>
        <param key="vmax" value="11"/>
        <param key="vmin" value="7.7"/>
    </edge>
    <edge id="gneE19" from="gneJ52" to="gneJ53" name="R.Estud.Renato Victorino" priority="1" spreadType="center" shape="730550.89,7019915.39 730656.48,7019905.48">
        <lane id="gneE19_0" index="0" speed="11.00" length="106.19" shape="730550.89,7019915.39 730648.31,7019906.25"/>
        <param key="vmax" value="6.04"/>
        <param key="vmin" value="3.3"/>
    </edge>
    <edge id="gneE2" from="gneJ33" to="gneJ34" name="Av.Ver.Abrahão João Francisco" priority="5" spreadType="center">
        <lane id="gneE2_0" index="0" speed="8.50" length="25.57" shape="730650.18,7019823.13 730664.02,7019830.57"/>
        <lane id="gneE2_1" index="1" speed="8.50" length="25.57" shape="730648.67,7019825.95 730662.50,7019833.39"/>
        <param key="vmax" value="5.94"/>
        <param key="vmin" value="4.67"/>
    </edge>
    <edge id="gneE20" from="gneJ53" to="gneJ48" name="R.José Siqueira" priority="-1" spreadType="center">
        <lane id="gneE20_0" index="0" speed="13.89" length="17.83" shape="730663.98,7019906.79 730666.86,7019906.68"/>
        <param key="vmax" value="7.69"/>
        <param key="vmin" value="6.05"/>
    </edge>
    <edge id="gneE21" from="gneJ53" to="gneJ54" name="R.José Siqueira" priority="3" spreadType="center">
        <lane id="gneE21_0" index="0" speed="11.00" length="39.40" shape="730655.41,7019900.25 730656.92,7019874.47"/>
        <lane id="gneE21_1" index="1" speed="11.00" length="39.40" shape="730658.60,7019900.43 730660.12,7019874.65"/>
        <param key="vmax" value="7.69"/>
        <param key="vmin" value="6.05"/>
    </edge>
    <edge id="gneE22" from="gneJ55" to="gneJ53" name="R.José Siqueira" priority="3" spreadType="center">
        <lane id="gneE22_0" index="0" speed="11.00" length="92.01" shape="730640.56,7019997.70 730653.75,7019914.90"/>
        <lane id="gneE22_1" index="1" speed="11.00" length="92.01" shape="730643.72,7019998.20 730656.91,7019915.40"/>
        <param key="vmax" value="11"/>
        <param key="vmin" value="7.7"/>
    </edge>
    <edge id="gneE23" from="gneJ56" to="gneJ35" name="R.José Siqueira" priority="3" spreadType="center">
        <lane id="gneE23_0" index="0" speed="11.00" length="104.60" shape="730701.12,7019742.93 730686.80,7019840.18"/>
        <param key="vmax" value="6.04"/>
        <param key="vmin" value="3.3"/>
    </edge>
    <edge id="gneE24" from="gneJ34" to="gneJ57" name="R.José Siqueira" priority="3" spreadType="center">
        <lane id="gneE24_0" index="0" speed="11.00" length="99.90" shape="730670.47,7019827.33 730684.09,7019736.42"/>
        <param key="vmax" value="11"/>
        <param key="vmin" value="7.7"/>
    </edge>
    <edge id="gneE25" from="gneJ53" to="gneJ58" name="R.Estud.Renato Victorino" priority="1" spreadType="center" shape="730656.84,7019908.66 730551.38,7019919.74">
        <lane id="gneE25_0" index="0" speed="11.00" length="106.13" shape="730648.65,7019909.52 730551.38,7019919.74"/>
        <param key="vmax" value="11"/>
        <param key="vmin" value="7.7"/>
    </edge>
    <edge id="gneE3" from="gneJ34" to="gneJ35" name="Av.Ver.Abrahão João Francisco" priority="5" spreadType="center">
        <lane id="gneE3_0" index="0" speed="8.50" length="20.01" shape="730673.71,7019836.27 730682.39,7019842.12"/>
        <lane id="gneE3_1" index="1" speed="8.50" length="20.01" shape="730671.92,7019838.92 730680.60,7019844.78"/>
        <param key="vmax" value="8.5"/>
        <param key="vmin" value="5.95"/>
    </edge>
    <edge id="gneE4" from="gneJ35" to="gneJ36" name="Av.Ver.Abrahão João Francisco" priority="4" spreadType="center" shape="730685.88,7019846.41 730735.52,7019897.22 730854.71,7019985.01">
        <lane id="gneE4_0" index="0" speed="16.00" length="219.07" shape="730694.16,7019852.59 730736.57,7019896.01 730855.66,7019983.72"/>
        <lane id="gneE4_1" index="1" speed="16.00" length="219.07" shape="730691.87,7019854.83 730734.47,7019898.43 730853.76,7019986.30"/>
        <param key="vmax" value="16"/>
        <param key="vmin" value="11.2"/>
    </edge>
    <edge id="gneE5" from="gneJ37" to="gneJ38" name="Av.Ver.Abrahão João Francisco" priority="4" spreadType="center">
        <lane id="gneE5_0" index="0" speed="16.00" length="78.61" shape="730844.30,7019999.30 730782.12,7019951.20"/>
        <lane id="gneE5_1" index="1" speed="16.00" length="78.61" shape="730846.26,7019996.76 730784.08,7019948.66"/>
        <param key="vmax" value="16"/>
        <param key="vmin" value="11.2"/>
    </edge>
    <edge id="gneE6" from="gneJ38" to="gneJ39" name="Av.Ver.Abrahão João Francisco" priority="4" spreadType="center">
        <lane id="gneE6_0" index="0" speed="8.50" length="128.40" shape="730782.19,7019951.25 730684.12,7019883.89"/>
        <lane id="gneE6_1" index="1" speed="8.50" length="128.40" shape="730784.01,7019948.61 730685.94,7019881.25"/>
        <param key="vmax" value="4.66"/>
        <param key="vmin" value="2.55"/>
    </edge>
    <edge id="gneE7" from="gneJ39" to="gneJ54" name="Av.Ver.Abrahão João Francisco" priority="5" spreadType="center">
        <lane id="gneE7_0" index="0" speed="8.50" length="20.65" shape="730670.72,7019875.65 730664.25,7019872.30"/>
        <lane id="gneE7_1" index="1" speed="8.50" length="20.65" shape="730672.19,7019872.81 730665.72,7019869.46"/>
        <param key="vmax" value="5.94"/>
        <param key="vmin" value="4.67"/>
    </edge>
    <edge id="gneE8" from="gneJ54" to="gneJ41" name="Av.Ver.Abrahão João Francisco" priority="5" spreadType="center">
        <lane id="gneE8_0" index="0" speed="8.50" length="33.69" shape="730655.32,7019866.62 730637.06,7019849.82"/>
        <lane id="gneE8_1" index="1" speed="8.50" length="33.69" shape="730657.49,7019864.26 730639.23,7019847.47"/>
        <param key="vmax" value="5.94"/>
        <param key="vmin" value="4.67"/>
    </edge>
    <edge id="gneE9" from="gneJ41" to="gneJ42" name="Av.Ver.Abrahão João Francisco" priority="4" spreadType="center" shape="730634.12,7019844.94 730591.63,7019809.38 730389.40,7019660.62">
        <lane id="gneE9_0" index="0" speed="16.00" length="306.46" shape="730624.03,7019838.58 730590.64,7019810.64 730388.45,7019661.91"/>
        <lane id="gneE9_1" index="1" speed="16.00" length="306.46" shape="730626.08,7019836.13 730592.62,7019808.12 730390.35,7019659.33"/>
        <param key="vmax" value="16"/>
        <param key="vmin" value="11.2"/>
    </edge>

    <junction id="gneJ31" type="dead_end" x="730391.13" y="7019641.18" incLanes="" intLanes="" shape="730389.22,7019643.75 730393.04,7019638.61"/>
    <junction id="gneJ32" type="priority" x="730559.66" y="7019766.67" incLanes="gneE0_0 gneE0_1" intLanes="" shape="730558.01,7019769.41 730561.49,7019764.04 730557.67,7019769.17">
        <request index="0" response="00" foes="00"/>
        <request index="1" response="00" foes="00"/>
    </junction>
    <junction id="gneJ33" type="priority" x="730646.77" y="7019823.11" incLanes="gneE1_0 gneE1_1 gneE14_0" intLanes="" shape="730647.91,7019827.35 730650.94,7019821.72 730643.98,7019817.49 730640.50,7019822.86 730641.50,7019823.84 730641.65,7019824.35 730641.55,7019824.87 730641.22,7019825.40 730640.65,7019825.94 730642.65,7019828.44 730644.54,7019827.28 730645.43,7019827.00 730646.29,7019826.92 730647.12,7019827.04">
        <request index="0" response="000" foes="000"/>
        <request index="1" response="100" foes="100"/>
        <request index="2" response="000" foes="010"/>
    </junction>
    <junction id="gneJ34" type="priority" x="730669.29" y="7019835.22" incLanes="gneE2_0 gneE2_1" intLanes="" shape="730671.02,7019840.25 730674.60,7019834.94 730672.84,7019833.13 730672.31,7019831.98 730671.99,7019830.67 730671.91,7019829.20 730672.05,7019827.57 730668.89,7019827.10 730668.17,7019829.08 730667.56,7019829.59 730666.80,7019829.77 730665.87,7019829.63 730664.77,7019829.16 730661.74,7019834.79 730665.26,7019836.67 730666.49,7019837.35 730667.69,7019838.06 730669.11,7019838.98">
        <request index="0" response="000" foes="000"/>
        <request index="1" response="000" foes="000"/>
        <request index="2" response="000" foes="000"/>
    </junction>
    <junction id="gneJ35" type="priority" x="730685.88" y="7019846.41" incLanes="gneE23_0 gneE3_0 gneE3_1" intLanes="" shape="730683.00,7019856.71 730689.40,7019856.51 730689.52,7019855.57 730689.70,7019855.38 730689.96,7019855.38 730690.30,7019855.57 730690.72,7019855.95 730695.30,7019851.47 730693.04,7019849.05 730691.23,7019846.86 730689.86,7019844.91 730688.92,7019843.18 730688.43,7019841.68 730688.38,7019840.41 730685.21,7019839.95 730684.87,7019840.91 730684.59,7019841.14 730684.23,7019841.20 730683.79,7019841.08 730683.28,7019840.80 730679.70,7019846.10 730681.42,7019848.19 730682.04,7019849.78 730682.52,7019851.73 730682.84,7019854.04">
        <request index="0" response="0000" foes="0000"/>
        <request index="1" response="0100" foes="0100"/>
        <request index="2" response="0000" foes="0010"/>
        <request index="3" response="0000" foes="0000"/>
    </junction>
    <junction id="gneJ36" type="dead_end" x="730854.71" y="7019985.01" incLanes="gneE4_0 gneE4_1" intLanes="" shape="730856.61,7019982.43 730852.81,7019987.59"/>
    <junction id="gneJ37" type="dead_end" x="730845.28" y="7019998.03" incLanes="" intLanes="" shape="730847.24,7019995.50 730843.32,7020000.56"/>
    <junction id="gneJ38" type="priority" x="730783.10" y="7019949.93" incLanes="gneE5_0 gneE5_1" intLanes="" shape="730781.21,7019952.52 730785.13,7019947.45 730784.84,7019947.24">
        <request index="0" response="00" foes="00"/>
        <request index="1" response="00" foes="00"/>
    </junction>
    <junction id="gneJ39" type="priority" x="730677.26" y="7019877.23" incLanes="gneE6_0 gneE6_1 gneE15_0 gneE15_1" intLanes="" shape="730683.22,7019885.20 730686.84,7019879.93 730684.45,7019877.75 730683.87,7019876.68 730683.70,7019875.63 730683.95,7019874.59 730684.61,7019873.57 730679.75,7019869.41 730677.54,7019871.32 730676.41,7019871.81 730675.26,7019871.98 730674.10,7019871.84 730672.93,7019871.39 730669.99,7019877.07 730672.06,7019878.99 730672.72,7019880.38 730673.12,7019882.07 730673.27,7019884.04 730673.16,7019886.30 730679.53,7019886.92 730680.12,7019884.96 730680.65,7019884.50 730681.34,7019884.39 730682.20,7019884.62">
        <request index="0" response="0001000" foes="0001000"/>
        <request index="1" response="0111000" foes="0111000"/>
        <request index="2" response="1111000" foes="1111000"/>
        <request index="3" response="0000000" foes="0000111"/>
        <request index="4" response="0000000" foes="0000110"/>
        <request index="5" response="0000000" foes="0000110"/>
        <request index="6" response="0000000" foes="0000100"/>
    </junction>
    <junction id="gneJ41" type="priority" x="730634.12" y="7019844.94" incLanes="gneE8_0 gneE8_1 gneE12_0" intLanes="" shape="730635.98,7019851.00 730640.31,7019846.29 730638.15,7019843.56 730637.50,7019842.03 730637.14,7019840.40 730637.07,7019838.67 730637.28,7019836.82 730634.14,7019836.23 730633.03,7019837.83 730632.01,7019837.86 730630.68,7019837.39 730629.05,7019836.40 730627.11,7019834.90 730623.00,7019839.81 730624.26,7019841.27 730624.30,7019841.81 730623.96,7019842.23 730623.21,7019842.52 730622.08,7019842.69 730622.88,7019849.50 730626.07,7019849.21 730628.85,7019849.13 730631.23,7019849.27 730633.22,7019849.63 730634.80,7019850.21">
        <request index="0" response="000000" foes="000000"/>
        <request index="1" response="000000" foes="110000"/>
        <request index="2" response="000000" foes="100000"/>
        <request index="3" response="000000" foes="100000"/>
        <request index="4" response="000010" foes="000010"/>
        <request index="5" response="001110" foes="001110"/>
    </junction>
    <junction id="gneJ42" type="dead_end" x="730389.40" y="7019660.62" incLanes="gneE9_0 gneE9_1" intLanes="" shape="730387.50,7019663.20 730391.30,7019658.04"/>
    <junction id="gneJ44" type="dead_end" x="730471.79" y="7019861.27" incLanes="" intLanes="" shape="730471.98,7019862.86 730471.60,7019859.68"/>
    <junction id="gneJ45" type="priority" x="730529.06" y="7019854.47" incLanes="gneE10_0" intLanes="" shape="730529.40,7019856.04 730529.02,7019852.86 730528.72,7019852.90 730529.10,7019856.08">
        <request index="0" response="0" foes="0"/>
    </junction>
    <junction id="gneJ46" type="priority" x="730602.18" y="7019845.89" incLanes="gneE11_0" intLanes="" shape="730602.42,7019847.48 730602.17,7019844.29 730601.88,7019844.31 730602.25,7019847.49">
        <request index="0" response="0" foes="0"/>
    </junction>
    <junction id="gneJ47" type="dead_end" x="730472.10" y="7019865.86" incLanes="gneE13_0" intLanes="" shape="730472.29,7019867.45 730471.91,7019864.27"/>
    <junction id="gneJ48" type="priority" x="730674.43" y="7019906.39" incLanes="gneE16_0 gneE16_1 gneE20_0" intLanes="" shape="730678.12,7019901.54 730671.75,7019900.93 730671.02,7019903.16 730670.32,7019903.96 730669.38,7019904.54 730668.21,7019904.92 730666.80,7019905.08 730666.93,7019908.28 730669.08,7019908.63 730669.77,7019909.15 730670.21,7019909.90 730670.39,7019910.88 730670.31,7019912.08 730676.64,7019913.06">
        <request index="0" response="000" foes="100"/>
        <request index="1" response="000" foes="100"/>
        <request index="2" response="011" foes="011"/>
    </junction>
    <junction id="gneJ49" type="dead_end" x="730659.93" y="7020000.25" incLanes="gneE17_0 gneE17_1" intLanes="" shape="730663.09,7020000.74 730656.77,7019999.76"/>
    <junction id="gneJ52" type="dead_end" x="730550.89" y="7019915.39" incLanes="" intLanes="" shape="730551.04,7019916.98 730550.74,7019913.80"/>
    <junction id="gneJ53" type="priority" x="730656.61" y="7019907.08" incLanes="gneE19_0 gneE22_0 gneE22_1" intLanes="" shape="730664.04,7019908.39 730663.91,7019905.20 730661.73,7019904.75 730660.99,7019904.11 730660.49,7019903.19 730660.22,7019902.00 730660.20,7019900.53 730653.81,7019900.15 730653.08,7019902.43 730652.28,7019903.27 730651.19,7019903.93 730649.81,7019904.39 730648.14,7019904.66 730648.82,7019911.11 730650.96,7019911.32 730651.64,7019911.79 730652.07,7019912.50 730652.25,7019913.45 730652.17,7019914.64 730658.49,7019915.65 730658.95,7019913.48 730659.60,7019911.70 730660.44,7019910.29 730661.45,7019909.28 730662.65,7019908.64">
        <request index="0" response="011000" foes="011000"/>
        <request index="1" response="111000" foes="111000"/>
        <request index="2" response="000000" foes="000000"/>
        <request index="3" response="000000" foes="000011"/>
        <request index="4" response="000000" foes="000011"/>
        <request index="5" response="000000" foes="000010"/>
    </junction>
    <junction id="gneJ54" type="priority" x="730658.92" y="7019867.75" incLanes="gneE7_0 gneE7_1 gneE21_0 gneE21_1" intLanes="" shape="730663.51,7019873.73 730666.45,7019868.04 730663.33,7019866.51 730662.25,7019865.94 730661.22,7019865.29 730660.06,7019864.40 730658.57,7019863.08 730654.24,7019867.79 730654.98,7019869.10 730655.21,7019870.08 730655.34,7019871.29 730655.38,7019872.72 730655.33,7019874.37 730661.71,7019874.75 730661.96,7019873.79 730662.22,7019873.55 730662.56,7019873.45 730662.99,7019873.51">
        <request index="0" response="0000" foes="1100"/>
        <request index="1" response="0000" foes="1000"/>
        <request index="2" response="0001" foes="0001"/>
        <request index="3" response="0011" foes="0011"/>
    </junction>
    <junction id="gneJ55" type="dead_end" x="730642.14" y="7019997.95" incLanes="" intLanes="" shape="730645.30,7019998.45 730638.98,7019997.45"/>
    <junction id="gneJ56" type="dead_end" x="730701.12" y="7019742.93" incLanes="" intLanes="" shape="730699.54,7019742.70 730702.70,7019743.16"/>
    <junction id="gneJ57" type="dead_end" x="730684.09" y="7019736.42" incLanes="gneE24_0" intLanes="" shape="730682.51,7019736.18 730685.67,7019736.66"/>
    <junction id="gneJ58" type="dead_end" x="730551.38" y="7019919.74" incLanes="gneE25_0" intLanes="" shape="730551.55,7019921.33 730551.21,7019918.15"/>

    <connection from="gneE0" to="gneE1" fromLane="0" toLane="0" dir="s" state="M"/>
    <connection from="gneE0" to="gneE1" fromLane="1" toLane="1" dir="s" state="M"/>
    <connection from="gneE1" to="gneE2" fromLane="0" toLane="0" dir="s" state="M"/>
    <connection from="gneE1" to="gneE2" fromLane="1" toLane="1" dir="s" state="m" visibility="9.00"/>
    <connection from="gneE10" to="gneE11" fromLane="0" toLane="0" dir="s" state="M"/>
    <connection from="gneE11" to="gneE12" fromLane="0" toLane="0" dir="s" state="M"/>
    <connection from="gneE12" to="gneE9" fromLane="0" toLane="0" dir="r" state="m"/>
    <connection from="gneE12" to="gneE14" fromLane="0" toLane="0" dir="R" state="m" visibility="9.00"/>
    <connection from="gneE14" to="gneE2" fromLane="0" toLane="1" dir="s" state="M"/>
    <connection from="gneE15" to="gneE16" fromLane="0" toLane="0" dir="s" state="M"/>
    <connection from="gneE15" to="gneE16" fromLane="0" toLane="1" dir="s" state="M"/>
    <connection from="gneE15" to="gneE7" fromLane="1" toLane="0" dir="s" state="M"/>
    <connection from="gneE15" to="gneE7" fromLane="1" toLane="1" dir="s" state="M"/>
    <connection from="gneE16" to="gneE17" fromLane="0" toLane="0" dir="s" state="M"/>
    <connection from="gneE16" to="gneE17" fromLane="1" toLane="1" dir="s" state="M"/>
    <connection from="gneE19" to="gneE21" fromLane="0" toLane="0" dir="r" state="m"/>
    <connection from="gneE19" to="gneE20" fromLane="0" toLane="0" dir="s" state="m"/>
    <connection from="gneE2" to="gneE24" fromLane="0" toLane="0" dir="r" state="M"/>
    <connection from="gneE2" to="gneE3" fromLane="0" toLane="0" dir="s" state="M"/>
    <connection from="gneE2" to="gneE3" fromLane="1" toLane="1" dir="s" state="M"/>
    <connection from="gneE20" to="gneE17" fromLane="0" toLane="1" dir="l" state="m"/>
    <connection from="gneE21" to="gneE8" fromLane="0" toLane="0" dir="r" state="m" visibility="9.00"/>
    <connection from="gneE21" to="gneE8" fromLane="1" toLane="1" dir="r" state="m" visibility="9.00"/>
    <connection from="gneE22" to="gneE25" fromLane="0" toLane="0" dir="r" state="M"/>
    <connection from="gneE22" to="gneE21" fromLane="0" toLane="0" dir="s" state="M"/>
    <connection from="gneE22" to="gneE21" fromLane="1" toLane="1" dir="s" state="M"/>
    <connection from="gneE22" to="gneE20" fromLane="1" toLane="0" dir="l" state="M"/>
    <connection from="gneE23" to="gneE4" fromLane="0" toLane="0" dir="r" state="M"/>
    <connection from="gneE23" to="gneE15" fromLane="0" toLane="0" dir="s" state="m" visibility="9.00"/>
    <connection from="gneE3" to="gneE4" fromLane="0" toLane="1" dir="s" state="M"/>
    <connection from="gneE3" to="gneE15" fromLane="1" toLane="1" dir="s" state="M"/>
    <connection from="gneE5" to="gneE6" fromLane="0" toLane="0" dir="s" state="M"/>
    <connection from="gneE5" to="gneE6" fromLane="1" toLane="1" dir="s" state="M"/>
    <connection from="gneE6" to="gneE16" fromLane="0" toLane="0" dir="r" state="m"/>
    <connection from="gneE6" to="gneE7" fromLane="0" toLane="0" dir="s" state="m" visibility="9.00"/>
    <connection from="gneE6" to="gneE7" fromLane="1" toLane="1" dir="s" state="m" visibility="9.00"/>
    <connection from="gneE7" to="gneE8" fromLane="0" toLane="0" dir="s" state="M"/>
    <connection from="gneE7" to="gneE8" fromLane="1" toLane="1" dir="s" state="M"/>
    <connection from="gneE8" to="gneE13" fromLane="0" toLane="0" dir="r" state="M"/>
    <connection from="gneE8" to="gneE9" fromLane="0" toLane="0" dir="s" state="M"/>
    <connection from="gneE8" to="gneE9" fromLane="1" toLane="1" dir="s" state="M"/>
    <connection from="gneE8" to="gneE14" fromLane="1" toLane="0" dir="s" state="M"/>

    <roundabout nodes="gneJ33 gneJ34 gneJ35 gneJ39 gneJ41 gneJ54" edges="gneE14 gneE15 gneE2 gneE3 gneE7 gneE8"/>

</net>
