<?xml version="1.0" encoding="UTF-8"?>

<!-- generated on 2021-08-23 17:14:39 by Eclipse SUMO netedit Version 1.10.0
<configuration xmlns:xsi="http://www.w3.org/2001/XMLSchema-instance" xsi:noNamespaceSchemaLocation="http://sumo.dlr.de/xsd/netconvertConfiguration.xsd">

    <output>
        <output-file value="C:\Users\jaceguay\Documents\drive\pos_big_data_12_artigo\teste_sim\a\malha_regular.net.xml"/>
    </output>

    <processing>
        <offset.disable-normalization value="true"/>
    </processing>

    <junctions>
        <no-turnarounds value="true"/>
    </junctions>

    <netedit>
        <route-files value="C:\Users\jaceguay\Documents\drive\pos_big_data_12_artigo\teste_sim\a\rota_demanda.rou.xml"/>
    </netedit>

    <report>
        <aggregate-warnings value="5"/>
    </report>

</configuration>
-->

<net version="1.9" junctionCornerDetail="5" limitTurnSpeed="5.50" xmlns:xsi="http://www.w3.org/2001/XMLSchema-instance" xsi:noNamespaceSchemaLocation="http://sumo.dlr.de/xsd/net_file.xsd">

    <location netOffset="0.00,0.00" convBoundary="16.78,53.01,259.37,54.71" origBoundary="10000000000.00,10000000000.00,-10000000000.00,-10000000000.00" projParameter="!"/>

    <edge id=":a2_0" function="internal">
        <lane id=":a2_0_0" index="0" speed="13.00" length="0.30" shape="88.07,51.93 88.37,51.93"/>
        <lane id=":a2_0_1" index="1" speed="13.00" length="0.30" shape="88.05,55.13 88.35,55.13"/>
    </edge>
    <edge id=":a3_0" function="internal">
        <lane id=":a3_0_0" index="0" speed="13.00" length="0.30" shape="166.74,52.59 167.03,52.59"/>
        <lane id=":a3_0_1" index="1" speed="13.00" length="0.30" shape="166.71,55.79 167.01,55.79"/>
    </edge>

    <edge id="a" from="a1" to="a2" priority="-1" spreadType="center">
        <lane id="a_0" index="0" speed="13.00" length="71.28" shape="16.79,51.41 88.07,51.93"/>
        <lane id="a_1" index="1" speed="13.00" length="71.28" shape="16.77,54.61 88.05,55.13"/>
    </edge>
    <edge id="b" from="a2" to="a3" priority="-1" spreadType="center">
        <lane id="b_0" index="0" speed="13.00" length="78.37" shape="88.37,51.93 166.74,52.59"/>
        <lane id="b_1" index="1" speed="13.00" length="78.37" shape="88.35,55.13 166.71,55.79"/>
    </edge>
    <edge id="c" from="a3" to="a4" priority="-1" spreadType="center">
        <lane id="c_0" index="0" speed="13.00" length="92.35" shape="167.03,52.59 259.38,53.11"/>
        <lane id="c_1" index="1" speed="13.00" length="92.35" shape="167.01,55.79 259.37,56.31"/>
    </edge>

    <junction id="a1" type="dead_end" x="16.78" y="53.01" incLanes="" intLanes="" shape="16.76,56.21 16.80,49.81"/>
    <junction id="a2" type="priority" x="88.21" y="53.53" incLanes="a_0 a_1" intLanes=":a2_0_0 :a2_0_1" shape="88.33,56.73 88.39,50.33 88.08,50.33 88.04,56.73">
        <request index="0" response="00" foes="00" cont="0"/>
        <request index="1" response="00" foes="00" cont="0"/>
    </junction>
    <junction id="a3" type="priority" x="166.87" y="54.19" incLanes="b_0 b_1" intLanes=":a3_0_0 :a3_0_1" shape="167.00,57.39 167.04,50.99 166.75,50.99 166.70,57.39">
        <request index="0" response="00" foes="00" cont="0"/>
        <request index="1" response="00" foes="00" cont="0"/>
    </junction>
    <junction id="a4" type="dead_end" x="259.37" y="54.71" incLanes="c_0 c_1" intLanes="" shape="259.39,51.51 259.36,57.91"/>

    <connection from="a" to="b" fromLane="0" toLane="0" via=":a2_0_0" dir="s" state="M"/>
    <connection from="a" to="b" fromLane="1" toLane="1" via=":a2_0_1" dir="s" state="M"/>
    <connection from="b" to="c" fromLane="0" toLane="0" via=":a3_0_0" dir="s" state="M"/>
    <connection from="b" to="c" fromLane="1" toLane="1" via=":a3_0_1" dir="s" state="M"/>

    <connection from=":a2_0" to="b" fromLane="0" toLane="0" dir="s" state="M"/>
    <connection from=":a2_0" to="b" fromLane="1" toLane="1" dir="s" state="M"/>
    <connection from=":a3_0" to="c" fromLane="0" toLane="0" dir="s" state="M"/>
    <connection from=":a3_0" to="c" fromLane="1" toLane="1" dir="s" state="M"/>

</net>
