<?xml version="1.0" encoding="UTF-8"?>

<!-- generated on 2021-08-23 17:37:50 by Eclipse SUMO netedit Version 1.10.0
<configuration xmlns:xsi="http://www.w3.org/2001/XMLSchema-instance" xsi:noNamespaceSchemaLocation="http://sumo.dlr.de/xsd/netconvertConfiguration.xsd">

    <input>
        <sumo-net-file value="C:\Users\jaceguay\Documents\drive\pos_big_data_12_artigo\teste_sim\a\malha_regular.net.xml"/>
    </input>

    <output>
        <output-file value="C:\Users\jaceguay\Documents\drive\pos_big_data_12_artigo\teste_sim\a\malha_regular.net.xml"/>
    </output>

    <processing>
        <geometry.min-radius.fix.railways value="false"/>
        <geometry.max-grade.fix value="false"/>
        <offset.disable-normalization value="true"/>
        <lefthand value="false"/>
    </processing>

    <junctions>
        <no-turnarounds value="true"/>
        <junctions.corner-detail value="5"/>
        <junctions.limit-turn-speed value="5.5"/>
        <rectangular-lane-cut value="false"/>
    </junctions>

    <pedestrian>
        <walkingareas value="false"/>
    </pedestrian>

    <netedit>
        <route-files value="C:\Users\jaceguay\Documents\drive\pos_big_data_12_artigo\teste_sim\a\rota_demanda.rou.xml"/>
    </netedit>

    <report>
        <aggregate-warnings value="5"/>
    </report>

</configuration>
-->

<routes xmlns:xsi="http://www.w3.org/2001/XMLSchema-instance" xsi:noNamespaceSchemaLocation="http://sumo.dlr.de/xsd/routes_file.xsd">
    <vType id="vType_0"/>
    <vType id="veiculo_a" length="4.80" maxSpeed="40.00" accel="1.6"/>
    <route edges="a b c" color="yellow" id="route_0"/>
    <flow id="flow_0" begin="0.00" route="route_0" end="3600.00" number="1800"/>
    <flow id="flow_1" begin="0.00" route="route_0" end="3600.00" number="1800"/>
    <flow id="flow_2" begin="0.00" route="route_0" end="3600.00" number="1800"/>
</routes>
