<?xml version="1.0" encoding="UTF-8"?>

<!-- generated on 2021-08-23 17:00:13 by Eclipse SUMO GUI Version 1.10.0
-->

<configuration xmlns:xsi="http://www.w3.org/2001/XMLSchema-instance" xsi:noNamespaceSchemaLocation="http://sumo.dlr.de/xsd/sumoConfiguration.xsd">

    <input>
        <net-file value="malha_regular.net.xml"/>
        <route-files value="rota_demanda.rou.xml"/>
        <additional-files value="sensores.xml"/>
    </input>

</configuration>
