<routes xmlns:xsi="http://www.w3.org/2001/XMLSchema-instance" xsi:noNamespaceSchemaLocation="http://sumo.dlr.de/xsd/routes_file.xsd">
    <vType id="veic_pass" accel="2.0" />
    <route edges="gneE0 gneE1 gneE2 gneE3 gneE4" color="yellow" id="route_0" />
    <route edges="gneE0 gneE1 gneE2 gneE3 gneE15 gneE16 gneE17" color="yellow" id="route_1" />
    <route edges="gneE10 gneE11 gneE12 gneE14 gneE2 gneE24" color="yellow" id="route_10" />
    <route edges="gneE26 gneE23 gneE15 gneE7 gneE8 gneE9" color="yellow" id="route_11" />
    <route edges="gneE26 gneE23 gneE15 gneE16 gneE17" color="yellow" id="route_12" />
    <route edges="gneE26 gneE23 gneE4" color="yellow" id="route_13" />
    <route edges="gneE22 gneE21 gneE8 gneE14 gneE2 gneE24" color="yellow" id="route_14" />
    <route edges="gneE22 gneE21 gneE8 gneE14 gneE2 gneE3 gneE4" color="yellow" id="route_15" />
    <route edges="gneE22 gneE21 gneE8 gneE9" color="yellow" id="route_16" />
    <route edges="gneE0 gneE1 gneE2 gneE24" color="yellow" id="route_3" />
    <route edges="gneE5 gneE6 gneE7 gneE8 gneE9" color="yellow" id="route_4" />
    <route edges="gneE5 gneE6 gneE7 gneE8 gneE14 gneE2 gneE24" color="yellow" id="route_5" />
    <route edges="gneE5 gneE6 gneE16 gneE17" color="yellow" id="route_7" />
    <route edges="gneE10 gneE11 gneE12 gneE14 gneE2 gneE3 gneE4" color="yellow" id="route_8" />
    <route edges="gneE10 gneE11 gneE12 gneE9" color="yellow" id="route_9" />
    <flow id="flow_0" type="veic_pass" begin="0.00" departSpeed="8.00" route="route_0" end="3600.00" number="141" />
    <flow id="flow_1" type="veic_pass" begin="0.00" departSpeed="8.00" route="route_1" end="3600.00" number="141" />
    <flow id="flow_10" type="veic_pass" begin="0.00" departSpeed="6.00" route="route_10" end="3600.00" number="10" />
    <flow id="flow_11" type="veic_pass" begin="0.00" departSpeed="6.00" route="route_11" end="3600.00" number="10" />
    <flow id="flow_12" type="veic_pass" begin="0.00" departSpeed="6.00" route="route_12" end="3600.00" number="10" />
    <flow id="flow_13" type="veic_pass" begin="0.00" departSpeed="6.00" route="route_13" end="3600.00" number="10" />
    <flow id="flow_14" type="veic_pass" begin="0.00" departSpeed="6.00" route="route_14" end="3600.00" number="46" />
    <flow id="flow_15" type="veic_pass" begin="0.00" departSpeed="6.00" route="route_15" end="3600.00" number="46" />
    <flow id="flow_16" type="veic_pass" begin="0.00" departSpeed="6.00" route="route_16" end="3600.00" number="46" />
    <flow id="flow_3" type="veic_pass" begin="0.00" departSpeed="8.00" route="route_3" end="3600.00" number="141" />
    <flow id="flow_4" type="veic_pass" begin="0.00" departSpeed="8.00" route="route_4" end="3600.00" number="226" />
    <flow id="flow_5" type="veic_pass" begin="0.00" departSpeed="8.00" route="route_5" end="3600.00" number="226" />
    <flow id="flow_7" type="veic_pass" begin="0.00" departSpeed="8.00" route="route_7" end="3600.00" number="226" />
    <flow id="flow_8" type="veic_pass" begin="0.00" departSpeed="6.00" route="route_8" end="3600.00" number="10" />
    <flow id="flow_9" type="veic_pass" begin="0.00" departSpeed="6.00" route="route_9" end="3600.00" number="10" />
</routes>