<?xml version="1.0" encoding="UTF-8"?>

<!-- generated on 2021-09-30 11:02:43 by Eclipse SUMO netedit Version 1.10.0
<configuration xmlns:xsi="http://www.w3.org/2001/XMLSchema-instance" xsi:noNamespaceSchemaLocation="http://sumo.dlr.de/xsd/netconvertConfiguration.xsd">

    <input>
        <sumo-net-file value="/Users/jaceguayzukoski/Documents/temp/gg/back/malha.net.xml"/>
    </input>

    <output>
        <output-file value="/Users/jaceguayzukoski/Documents/temp/gg/back/malha.net.xml"/>
        <output.street-names value="true"/>
    </output>

    <processing>
        <geometry.min-radius.fix.railways value="false"/>
        <geometry.max-grade.fix value="false"/>
        <offset.disable-normalization value="true"/>
        <lefthand value="false"/>
    </processing>

    <junctions>
        <no-internal-links value="true"/>
        <no-turnarounds value="true"/>
        <junctions.corner-detail value="5"/>
        <junctions.limit-turn-speed value="5.5"/>
        <rectangular-lane-cut value="false"/>
    </junctions>

    <pedestrian>
        <walkingareas value="false"/>
    </pedestrian>

    <report>
        <aggregate-warnings value="5"/>
    </report>

</configuration>
-->

<net version="1.9" junctionCornerDetail="5" limitTurnSpeed="5.50" xmlns:xsi="http://www.w3.org/2001/XMLSchema-instance" xsi:noNamespaceSchemaLocation="http://sumo.dlr.de/xsd/net_file.xsd">

    <location netOffset="0.00,0.00" convBoundary="730109.42,7019417.09,731145.22,7020209.79" origBoundary="-10000000000.00,-10000000000.00,10000000000.00,10000000000.00" projParameter="!"/>

    <edge id="gneE0" from="gneJ31" to="gneJ32" name="Av.Ver.Abrahão João Francisco" priority="3" spreadType="center">
        <lane id="gneE0_0" index="0" speed="16.00" length="576.91" shape="730115.84,7019429.67 730577.20,7019775.87"/>
        <lane id="gneE0_1" index="1" speed="16.00" length="576.91" shape="730113.92,7019432.23 730575.27,7019778.43"/>
        <param key="vmax" value="16"/>
        <param key="vmin" value="11.2"/>
    </edge>
    <edge id="gneE1" from="gneJ32" to="gneJ33" name="Av.Ver.Abrahão João Francisco" priority="3" spreadType="center">
        <lane id="gneE1_0" index="0" speed="16.00" length="84.08" shape="730577.28,7019775.93 730643.13,7019818.83"/>
        <lane id="gneE1_1" index="1" speed="16.00" length="84.08" shape="730575.54,7019778.61 730641.38,7019821.51"/>
        <param key="vmax" value="8.79"/>
        <param key="vmin" value="4.80"/>
    </edge>
    <edge id="gneE10" from="gneJ44" to="gneJ45" name="R.Pres.João Goulart" priority="1" spreadType="center">
        <lane id="gneE10_0" index="0" speed="11.00" length="34.74" shape="730416.35,7019867.77 730450.74,7019864.05"/>
        <param key="vmax" value="11"/>
        <param key="vmin" value="7.7"/>
    </edge>
    <edge id="gneE11" from="gneJ45" to="gneJ46" name="R.Pres.João Goulart" priority="1" spreadType="center">
        <lane id="gneE11_0" index="0" speed="11.00" length="81.27" shape="730451.04,7019864.01 730531.49,7019854.83"/>
        <param key="vmax" value="7.69"/>
        <param key="vmin" value="6.05"/>
    </edge>
    <edge id="gneE12" from="gneJ46" to="gneJ41" name="R.Pres.João Goulart" priority="1" spreadType="center" shape="730531.64,7019854.81 730633.94,7019843.35">
        <lane id="gneE12_0" index="0" speed="11.00" length="103.05" shape="730531.79,7019854.79 730622.55,7019844.63"/>
        <param key="vmax" value="6.04"/>
        <param key="vmin" value="3.3"/>
    </edge>
    <edge id="gneE13" from="gneJ41" to="gneJ47" name="R.Pres.João Goulart" priority="1" spreadType="center" shape="730634.34,7019846.52 730418.06,7019873.41">
        <lane id="gneE13_0" index="0" speed="11.00" length="218.03" shape="730622.96,7019847.94 730418.06,7019873.41"/>
        <param key="vmax" value="11"/>
        <param key="vmin" value="7.7"/>
    </edge>
    <edge id="gneE14" from="gneJ41" to="gneJ33" name="Av.Ver.Abrahão João Francisco" priority="4" spreadType="center" shape="730634.12,7019844.94 730636.73,7019831.12 730646.77,7019823.11">
        <lane id="gneE14_0" index="0" speed="8.50" length="26.91" shape="730635.71,7019836.53 730636.73,7019831.12 730641.66,7019827.19"/>
        <param key="vmax" value="5.94"/>
        <param key="vmin" value="4.67"/>
    </edge>
    <edge id="gneE15" from="gneJ35" to="gneJ39" name="Av.Ver.Abrahão João Francisco" priority="4" spreadType="center" shape="730685.88,7019846.41 730686.51,7019866.44 730677.26,7019877.23">
        <lane id="gneE15_0" index="0" speed="8.50" length="34.25" shape="730687.80,7019856.54 730688.13,7019867.01 730683.46,7019872.46"/>
        <lane id="gneE15_1" index="1" speed="8.50" length="34.25" shape="730684.60,7019856.64 730684.89,7019865.87 730681.03,7019870.38"/>
        <param key="vmax" value="5.94"/>
        <param key="vmin" value="4.67"/>
    </edge>
    <edge id="gneE16" from="gneJ39" to="gneJ48" name="R.José Siqueira" priority="3" spreadType="center">
        <lane id="gneE16_0" index="0" speed="11.00" length="33.21" shape="730677.81,7019886.53 730675.10,7019910.28"/>
        <lane id="gneE16_1" index="1" speed="11.00" length="33.21" shape="730674.63,7019886.16 730671.92,7019909.91"/>
        <param key="vmax" value="11"/>
        <param key="vmin" value="7.7"/>
    </edge>
    <edge id="gneE17" from="gneJ48" to="gneJ49" name="R.José Siqueira" priority="3" spreadType="center">
        <lane id="gneE17_0" index="0" speed="11.00" length="243.76" shape="730675.05,7019910.63 730635.36,7020150.99"/>
        <lane id="gneE17_1" index="1" speed="11.00" length="243.76" shape="730671.89,7019910.10 730632.20,7020150.47"/>
        <param key="vmax" value="11"/>
        <param key="vmin" value="7.7"/>
    </edge>
    <edge id="gneE2" from="gneJ33" to="gneJ34" name="Av.Ver.Abrahão João Francisco" priority="4" spreadType="center">
        <lane id="gneE2_0" index="0" speed="8.50" length="25.57" shape="730650.18,7019823.13 730664.00,7019830.56"/>
        <lane id="gneE2_1" index="1" speed="8.50" length="25.57" shape="730648.67,7019825.95 730662.49,7019833.38"/>
        <param key="vmax" value="5.94"/>
        <param key="vmin" value="4.67"/>
    </edge>
    <edge id="gneE21" from="gneJ53" to="gneJ54" name="R.José Siqueira" priority="3" spreadType="center">
        <lane id="gneE21_0" index="0" speed="11.00" length="94.32" shape="730649.70,7019961.49 730656.78,7019874.36"/>
        <lane id="gneE21_1" index="1" speed="11.00" length="94.32" shape="730652.89,7019961.75 730659.97,7019874.62"/>
        <param key="vmax" value="7.69"/>
        <param key="vmin" value="6.05"/>
    </edge>
    <edge id="gneE22" from="gneJ55" to="gneJ53" name="R.José Siqueira" priority="3" spreadType="center">
        <lane id="gneE22_0" index="0" speed="11.00" length="188.69" shape="730618.48,7020147.59 730649.68,7019961.63"/>
        <lane id="gneE22_1" index="1" speed="11.00" length="188.69" shape="730621.64,7020148.11 730652.84,7019962.16"/>
        <param key="vmax" value="11"/>
        <param key="vmin" value="7.7"/>
    </edge>
    <edge id="gneE23" from="gneJ56" to="gneJ35" name="R.José Siqueira" priority="2" spreadType="center" shape="730700.47,7019741.35 730692.57,7019798.21 730685.88,7019846.41">
        <lane id="gneE23_0" index="0" speed="11.00" length="106.07" shape="730700.45,7019741.50 730692.57,7019798.21 730686.75,7019840.16"/>
        <param key="vmax" value="6.04"/>
        <param key="vmin" value="3.3"/>
    </edge>
    <edge id="gneE24" from="gneJ34" to="gneJ57" name="R.José Siqueira" priority="2" spreadType="center">
        <lane id="gneE24_0" index="0" speed="11.00" length="101.76" shape="730670.44,7019827.32 730683.97,7019734.52"/>
        <param key="vmax" value="11"/>
        <param key="vmin" value="7.7"/>
    </edge>
    <edge id="gneE26" from="gneJ59" to="gneJ56" name="R.José Siqueira" priority="2" spreadType="center">
        <lane id="gneE26_0" index="0" speed="11.00" length="327.91" shape="730749.26,7019417.09 730700.49,7019741.20"/>
        <param key="vmax" value="11"/>
        <param key="vmin" value="7.7"/>
    </edge>
    <edge id="gneE3" from="gneJ34" to="gneJ35" name="Av.Ver.Abrahão João Francisco" priority="4" spreadType="center">
        <lane id="gneE3_0" index="0" speed="8.50" length="20.01" shape="730673.70,7019836.26 730682.37,7019842.11"/>
        <lane id="gneE3_1" index="1" speed="8.50" length="20.01" shape="730671.91,7019838.91 730680.58,7019844.77"/>
        <param key="vmax" value="8.5"/>
        <param key="vmin" value="5.95"/>
    </edge>
    <edge id="gneE4" from="gneJ35" to="gneJ36" name="Av.Ver.Abrahão João Francisco" priority="3" spreadType="center" shape="730685.88,7019846.41 730735.52,7019897.22 731145.22,7020203.01">
        <lane id="gneE4_0" index="0" speed="16.00" length="582.27" shape="730694.14,7019852.58 730736.58,7019896.01 731146.18,7020201.73"/>
        <lane id="gneE4_1" index="1" speed="16.00" length="582.27" shape="730691.85,7019854.81 730734.46,7019898.43 731144.26,7020204.29"/>
        <param key="vmax" value="16"/>
        <param key="vmin" value="11.2"/>
    </edge>
    <edge id="gneE5" from="gneJ37" to="gneJ38" name="Av.Ver.Abrahão João Francisco" priority="3" spreadType="center">
        <lane id="gneE5_0" index="0" speed="16.00" length="455.37" shape="731137.24,7020211.08 730771.19,7019940.22"/>
        <lane id="gneE5_1" index="1" speed="16.00" length="455.37" shape="731139.14,7020208.50 730773.09,7019937.64"/>
        <param key="vmax" value="16"/>
        <param key="vmin" value="11.2"/>
    </edge>
    <edge id="gneE6" from="gneJ38" to="gneJ39" name="Av.Ver.Abrahão João Francisco" priority="3" spreadType="center">
        <lane id="gneE6_0" index="0" speed="16.00" length="113.18" shape="730771.27,7019940.27 730684.08,7019883.57"/>
        <lane id="gneE6_1" index="1" speed="16.00" length="113.18" shape="730773.01,7019937.59 730685.82,7019880.89"/>
        <param key="vmax" value="8.79"/>
        <param key="vmin" value="4.80"/>
    </edge>
    <edge id="gneE7" from="gneJ39" to="gneJ54" name="Av.Ver.Abrahão João Francisco" priority="4" spreadType="center">
        <lane id="gneE7_0" index="0" speed="8.50" length="20.65" shape="730670.72,7019875.65 730664.19,7019872.27"/>
        <lane id="gneE7_1" index="1" speed="8.50" length="20.65" shape="730672.19,7019872.81 730665.66,7019869.43"/>
        <param key="vmax" value="5.94"/>
        <param key="vmin" value="4.67"/>
    </edge>
    <edge id="gneE8" from="gneJ54" to="gneJ41" name="Av.Ver.Abrahão João Francisco" priority="4" spreadType="center">
        <lane id="gneE8_0" index="0" speed="8.50" length="33.69" shape="730655.25,7019866.55 730637.07,7019849.83"/>
        <lane id="gneE8_1" index="1" speed="8.50" length="33.69" shape="730657.42,7019864.19 730639.24,7019847.47"/>
        <param key="vmax" value="5.94"/>
        <param key="vmin" value="4.67"/>
    </edge>
    <edge id="gneE9" from="gneJ41" to="gneJ42" name="Av.Ver.Abrahão João Francisco" priority="3" spreadType="center" shape="730634.12,7019844.94 730591.63,7019809.38 730109.42,7019439.82">
        <lane id="gneE9_0" index="0" speed="16.00" length="662.94" shape="730624.29,7019838.80 730590.63,7019810.63 730108.45,7019441.09"/>
        <lane id="gneE9_1" index="1" speed="16.00" length="662.94" shape="730626.34,7019836.34 730592.63,7019808.13 730110.39,7019438.55"/>
        <param key="vmax" value="16"/>
        <param key="vmin" value="11.2"/>
    </edge>

    <junction id="gneJ31" type="dead_end" x="730114.88" y="7019430.95" incLanes="" intLanes="" shape="730112.96,7019433.51 730116.80,7019428.39"/>
    <junction id="gneJ32" type="priority" x="730576.32" y="7019777.21" incLanes="gneE0_0 gneE0_1" intLanes="" shape="730574.66,7019779.95 730578.16,7019774.59 730574.31,7019779.71">
        <request index="0" response="00" foes="00"/>
        <request index="1" response="00" foes="00"/>
    </junction>
    <junction id="gneJ33" type="priority" x="730646.77" y="7019823.11" incLanes="gneE1_0 gneE1_1 gneE14_0" intLanes="" shape="730647.91,7019827.35 730650.94,7019821.72 730644.00,7019817.49 730640.51,7019822.85 730641.51,7019823.83 730641.65,7019824.34 730641.56,7019824.86 730641.23,7019825.40 730640.66,7019825.94 730642.65,7019828.44 730644.54,7019827.28 730645.43,7019827.00 730646.29,7019826.92 730647.12,7019827.04">
        <request index="0" response="000" foes="000"/>
        <request index="1" response="100" foes="100"/>
        <request index="2" response="000" foes="010"/>
    </junction>
    <junction id="gneJ34" type="priority" x="730669.29" y="7019835.22" incLanes="gneE2_0 gneE2_1" intLanes="" shape="730671.01,7019840.24 730674.59,7019834.94 730672.83,7019833.12 730672.29,7019831.97 730671.98,7019830.66 730671.89,7019829.18 730672.03,7019827.55 730668.86,7019827.09 730668.15,7019829.07 730667.55,7019829.58 730666.78,7019829.76 730665.85,7019829.62 730664.76,7019829.15 730661.73,7019834.79 730665.25,7019836.67 730666.47,7019837.34 730667.67,7019838.06 730669.10,7019838.97">
        <request index="0" response="000" foes="000"/>
        <request index="1" response="000" foes="000"/>
        <request index="2" response="000" foes="000"/>
    </junction>
    <junction id="gneJ35" type="priority" x="730685.88" y="7019846.41" incLanes="gneE23_0 gneE3_0 gneE3_1" intLanes="" shape="730683.00,7019856.69 730689.40,7019856.49 730689.52,7019855.55 730689.69,7019855.37 730689.95,7019855.37 730690.29,7019855.56 730690.71,7019855.93 730695.29,7019851.46 730693.03,7019849.04 730691.21,7019846.85 730689.83,7019844.88 730688.89,7019843.15 730688.39,7019841.65 730688.33,7019840.38 730685.16,7019839.94 730684.83,7019840.90 730684.55,7019841.12 730684.20,7019841.18 730683.77,7019841.07 730683.27,7019840.79 730679.69,7019846.09 730681.41,7019848.18 730682.04,7019849.77 730682.51,7019851.72 730682.84,7019854.02">
        <request index="0" response="0000" foes="0000"/>
        <request index="1" response="0100" foes="0100"/>
        <request index="2" response="0000" foes="0010"/>
        <request index="3" response="0000" foes="0000"/>
    </junction>
    <junction id="gneJ36" type="dead_end" x="731145.22" y="7020203.01" incLanes="gneE4_0 gneE4_1" intLanes="" shape="731147.13,7020200.45 731143.31,7020205.57"/>
    <junction id="gneJ37" type="dead_end" x="731138.19" y="7020209.79" incLanes="" intLanes="" shape="731140.09,7020207.22 731136.29,7020212.36"/>
    <junction id="gneJ38" type="priority" x="730772.14" y="7019938.93" incLanes="gneE5_0 gneE5_1" intLanes="" shape="730770.31,7019941.56 730774.12,7019936.42 730773.80,7019936.19">
        <request index="0" response="00" foes="00"/>
        <request index="1" response="00" foes="00"/>
    </junction>
    <junction id="gneJ39" type="priority" x="730677.26" y="7019877.23" incLanes="gneE6_0 gneE6_1 gneE15_0 gneE15_1" intLanes="" shape="730683.21,7019884.91 730686.69,7019879.55 730684.41,7019877.54 730683.87,7019876.53 730683.74,7019875.52 730684.00,7019874.51 730684.67,7019873.50 730679.81,7019869.34 730677.57,7019871.29 730676.42,7019871.79 730675.27,7019871.98 730674.10,7019871.84 730672.93,7019871.39 730669.99,7019877.07 730672.03,7019878.95 730672.67,7019880.29 730673.05,7019881.91 730673.17,7019883.81 730673.04,7019885.98 730679.40,7019886.71 730680.02,7019884.74 730680.58,7019884.27 730681.29,7019884.14 730682.17,7019884.36">
        <request index="0" response="0001000" foes="0001000"/>
        <request index="1" response="0111000" foes="0111000"/>
        <request index="2" response="1111000" foes="1111000"/>
        <request index="3" response="0000000" foes="0000111"/>
        <request index="4" response="0000000" foes="0000110"/>
        <request index="5" response="0000000" foes="0000110"/>
        <request index="6" response="0000000" foes="0000100"/>
    </junction>
    <junction id="gneJ41" type="priority" x="730634.12" y="7019844.94" incLanes="gneE8_0 gneE8_1 gneE12_0" intLanes="" shape="730635.99,7019851.01 730640.32,7019846.30 730638.15,7019843.56 730637.50,7019842.04 730637.14,7019840.40 730637.07,7019838.67 730637.28,7019836.82 730634.14,7019836.23 730633.05,7019837.85 730632.07,7019837.92 730630.80,7019837.48 730629.23,7019836.55 730627.37,7019835.12 730623.26,7019840.03 730624.52,7019841.50 730624.57,7019842.06 730624.22,7019842.51 730623.48,7019842.83 730622.35,7019843.04 730623.16,7019849.53 730626.26,7019849.23 730628.98,7019849.15 730631.31,7019849.28 730633.25,7019849.64 730634.81,7019850.21">
        <request index="0" response="000000" foes="000000"/>
        <request index="1" response="000000" foes="110000"/>
        <request index="2" response="000000" foes="100000"/>
        <request index="3" response="000000" foes="100000"/>
        <request index="4" response="000010" foes="000010"/>
        <request index="5" response="001110" foes="001110"/>
    </junction>
    <junction id="gneJ42" type="dead_end" x="730109.42" y="7019439.82" incLanes="gneE9_0 gneE9_1" intLanes="" shape="730107.47,7019442.36 730111.37,7019437.28"/>
    <junction id="gneJ44" type="dead_end" x="730416.35" y="7019867.77" incLanes="" intLanes="" shape="730416.52,7019869.36 730416.18,7019866.18"/>
    <junction id="gneJ45" type="priority" x="730450.89" y="7019864.03" incLanes="gneE10_0" intLanes="" shape="730451.22,7019865.60 730450.86,7019862.42 730450.57,7019862.46 730450.91,7019865.64">
        <request index="0" response="0" foes="0"/>
    </junction>
    <junction id="gneJ46" type="priority" x="730531.64" y="7019854.81" incLanes="gneE11_0" intLanes="" shape="730531.97,7019856.38 730531.61,7019853.20 730531.31,7019853.24 730531.67,7019856.42">
        <request index="0" response="0" foes="0"/>
    </junction>
    <junction id="gneJ47" type="dead_end" x="730418.06" y="7019873.41" incLanes="gneE13_0" intLanes="" shape="730418.26,7019875.00 730417.86,7019871.82"/>
    <junction id="gneJ48" type="priority" x="730673.49" y="7019910.23" incLanes="gneE16_0 gneE16_1" intLanes="" shape="730676.68,7019910.46 730670.33,7019909.73 730670.31,7019909.84 730676.62,7019910.89">
        <request index="0" response="00" foes="00"/>
        <request index="1" response="00" foes="00"/>
    </junction>
    <junction id="gneJ49" type="dead_end" x="730633.78" y="7020150.73" incLanes="gneE17_0 gneE17_1" intLanes="" shape="730636.94,7020151.25 730630.62,7020150.21"/>
    <junction id="gneJ53" type="priority" x="730651.28" y="7019961.76" incLanes="gneE22_0 gneE22_1" intLanes="" shape="730654.48,7019961.88 730648.10,7019961.36 730654.41,7019962.42">
        <request index="0" response="00" foes="00"/>
        <request index="1" response="00" foes="00"/>
    </junction>
    <junction id="gneJ54" type="priority" x="730658.92" y="7019867.75" incLanes="gneE7_0 gneE7_1 gneE21_0 gneE21_1" intLanes="" shape="730663.45,7019873.70 730666.39,7019868.01 730663.27,7019866.47 730662.18,7019865.89 730661.15,7019865.24 730659.99,7019864.33 730658.50,7019863.02 730654.17,7019867.73 730654.92,7019869.04 730655.14,7019870.01 730655.26,7019871.20 730655.27,7019872.61 730655.18,7019874.23 730661.56,7019874.75 730661.84,7019873.76 730662.11,7019873.51 730662.47,7019873.41 730662.92,7019873.48">
        <request index="0" response="0000" foes="1100"/>
        <request index="1" response="0000" foes="1000"/>
        <request index="2" response="0001" foes="0001"/>
        <request index="3" response="0011" foes="0011"/>
    </junction>
    <junction id="gneJ55" type="dead_end" x="730620.06" y="7020147.85" incLanes="" intLanes="" shape="730623.22,7020148.38 730616.90,7020147.32"/>
    <junction id="gneJ56" type="priority" x="730700.47" y="7019741.35" incLanes="gneE26_0" intLanes="" shape="730702.07,7019741.44 730698.91,7019740.97 730698.87,7019741.28 730702.03,7019741.72">
        <request index="0" response="0" foes="0"/>
    </junction>
    <junction id="gneJ57" type="dead_end" x="730683.97" y="7019734.52" incLanes="gneE24_0" intLanes="" shape="730682.39,7019734.29 730685.55,7019734.75"/>
    <junction id="gneJ59" type="dead_end" x="730749.26" y="7019417.09" incLanes="" intLanes="" shape="730747.68,7019416.85 730750.84,7019417.33"/>

    <connection from="gneE0" to="gneE1" fromLane="0" toLane="0" dir="s" state="M"/>
    <connection from="gneE0" to="gneE1" fromLane="1" toLane="1" dir="s" state="M"/>
    <connection from="gneE1" to="gneE2" fromLane="0" toLane="0" dir="s" state="M"/>
    <connection from="gneE1" to="gneE2" fromLane="1" toLane="1" dir="s" state="m" visibility="9.00"/>
    <connection from="gneE10" to="gneE11" fromLane="0" toLane="0" dir="s" state="M"/>
    <connection from="gneE11" to="gneE12" fromLane="0" toLane="0" dir="s" state="M"/>
    <connection from="gneE12" to="gneE9" fromLane="0" toLane="0" dir="r" state="m"/>
    <connection from="gneE12" to="gneE14" fromLane="0" toLane="0" dir="R" state="m" visibility="9.00"/>
    <connection from="gneE14" to="gneE2" fromLane="0" toLane="1" dir="s" state="M"/>
    <connection from="gneE15" to="gneE16" fromLane="0" toLane="0" dir="s" state="M"/>
    <connection from="gneE15" to="gneE16" fromLane="0" toLane="1" dir="s" state="M"/>
    <connection from="gneE15" to="gneE7" fromLane="1" toLane="0" dir="s" state="M"/>
    <connection from="gneE15" to="gneE7" fromLane="1" toLane="1" dir="s" state="M"/>
    <connection from="gneE16" to="gneE17" fromLane="0" toLane="0" dir="s" state="M"/>
    <connection from="gneE16" to="gneE17" fromLane="1" toLane="1" dir="s" state="M"/>
    <connection from="gneE2" to="gneE24" fromLane="0" toLane="0" dir="r" state="M"/>
    <connection from="gneE2" to="gneE3" fromLane="0" toLane="0" dir="s" state="M"/>
    <connection from="gneE2" to="gneE3" fromLane="1" toLane="1" dir="s" state="M"/>
    <connection from="gneE21" to="gneE8" fromLane="0" toLane="0" dir="r" state="m" visibility="9.00"/>
    <connection from="gneE21" to="gneE8" fromLane="1" toLane="1" dir="r" state="m" visibility="9.00"/>
    <connection from="gneE22" to="gneE21" fromLane="0" toLane="0" dir="s" state="M"/>
    <connection from="gneE22" to="gneE21" fromLane="1" toLane="1" dir="s" state="M"/>
    <connection from="gneE23" to="gneE4" fromLane="0" toLane="0" dir="r" state="M"/>
    <connection from="gneE23" to="gneE15" fromLane="0" toLane="0" dir="s" state="m" visibility="9.00"/>
    <connection from="gneE26" to="gneE23" fromLane="0" toLane="0" dir="s" state="M"/>
    <connection from="gneE3" to="gneE4" fromLane="0" toLane="1" dir="s" state="M"/>
    <connection from="gneE3" to="gneE15" fromLane="1" toLane="1" dir="s" state="M"/>
    <connection from="gneE5" to="gneE6" fromLane="0" toLane="0" dir="s" state="M"/>
    <connection from="gneE5" to="gneE6" fromLane="1" toLane="1" dir="s" state="M"/>
    <connection from="gneE6" to="gneE16" fromLane="0" toLane="0" dir="r" state="m"/>
    <connection from="gneE6" to="gneE7" fromLane="0" toLane="0" dir="s" state="m" visibility="9.00"/>
    <connection from="gneE6" to="gneE7" fromLane="1" toLane="1" dir="s" state="m" visibility="9.00"/>
    <connection from="gneE7" to="gneE8" fromLane="0" toLane="0" dir="s" state="M"/>
    <connection from="gneE7" to="gneE8" fromLane="1" toLane="1" dir="s" state="M"/>
    <connection from="gneE8" to="gneE13" fromLane="0" toLane="0" dir="r" state="M"/>
    <connection from="gneE8" to="gneE9" fromLane="0" toLane="0" dir="s" state="M"/>
    <connection from="gneE8" to="gneE9" fromLane="1" toLane="1" dir="s" state="M"/>
    <connection from="gneE8" to="gneE14" fromLane="1" toLane="0" dir="s" state="M"/>

    <roundabout nodes="gneJ33 gneJ34 gneJ35 gneJ39 gneJ41 gneJ54" edges="gneE14 gneE15 gneE2 gneE3 gneE7 gneE8"/>

</net>
