<?xml version="1.0" encoding="UTF-8"?>

<!-- generated on 2021-08-31 18:29:48 by Eclipse SUMO netedit Version 1.10.0
<configuration xmlns:xsi="http://www.w3.org/2001/XMLSchema-instance" xsi:noNamespaceSchemaLocation="http://sumo.dlr.de/xsd/netconvertConfiguration.xsd">

    <input>
        <sumo-net-file value="C:\Users\jaceguay\Documents\drive\pos_big_data_12_artigo\proposta_a\malha.net.xml"/>
    </input>

    <output>
        <output-file value="C:\Users\jaceguay\Documents\drive\pos_big_data_12_artigo\proposta_a\malha.net.xml"/>
        <output.street-names value="true"/>
    </output>

    <processing>
        <geometry.min-radius.fix.railways value="false"/>
        <geometry.max-grade.fix value="false"/>
        <offset.disable-normalization value="true"/>
        <lefthand value="false"/>
    </processing>

    <junctions>
        <no-internal-links value="true"/>
        <no-turnarounds value="true"/>
        <junctions.corner-detail value="5"/>
        <junctions.limit-turn-speed value="5.5"/>
        <rectangular-lane-cut value="false"/>
    </junctions>

    <pedestrian>
        <walkingareas value="false"/>
    </pedestrian>

    <netedit>
        <route-files value="C:\Users\jaceguay\Documents\drive\pos_big_data_12_artigo\proposta_a\rotas.rou.xml"/>
    </netedit>

    <report>
        <aggregate-warnings value="5"/>
    </report>

</configuration>
-->

<routes xmlns:xsi="http://www.w3.org/2001/XMLSchema-instance" xsi:noNamespaceSchemaLocation="http://sumo.dlr.de/xsd/routes_file.xsd">
    <route edges="ajfa ajfb ajfc ajfd ajfe" color="yellow" id="ajfa_ajfe_3"/>
    <route edges="ajfa ajfb ajfc ajfd ajfrb ajfh ajfi ajfj" color="yellow" id="ajfa_ajfj_3"/>
    <route edges="ajfa ajfb ajfc jsb" color="yellow" id="ajfa_jsb_3"/>
    <route edges="ajfa ajfb ajfc ajfd ajfrb ajfh ajfi pjga" color="yellow" id="ajfa_pjga_3"/>
    <route edges="ajff ajfg ajfh ajfi ajfra ajfc ajfd ajfe" color="yellow" id="ajff_ajfe_3"/>
    <route edges="ajff ajfg ajfh ajfi ajfj" color="yellow" id="ajff_ajfj_3"/>
    <route edges="ajff ajfg ajfh ajfi ajfra ajfc jsb" color="yellow" id="ajff_jsb_3"/>
    <route edges="ajff ajfg jsc jsd" color="yellow" id="ajff_jsd_3"/>
    <route edges="ajff ajfg ajfh ajfi pjga" color="yellow" id="ajff_pjga_3"/>
    <route edges="ajfa ajfb ajfc ajfd ajfrb jsc jsd" color="yellow" id="ajfj_jsd_3"/>
    <route edges="ervb jsr jsd" color="yellow" id="ervb_jsd_1"/>
    <route edges="jsa ajfe" color="yellow" id="jsa_ajfe_1"/>
    <route edges="jsa ajfrb ajfh ajfi ajfj" color="yellow" id="jsa_ajfj_1"/>
    <route edges="jsa ajfrb jsc jsd" color="yellow" id="jsa_jsd_1"/>
    <route edges="jse jsf ajfi ajfra ajfc ajfd ajfe" color="yellow" id="jse_ajfe_2"/>
    <route edges="jse jsf ajfi ajfj" color="yellow" id="jse_ajfj_2"/>
    <route edges="jse jsf ajfi ajfra ajfc jsb" color="yellow" id="jse_jsb_2"/>
    <route edges="pjgb ajfra ajfc ajfd ajfe" color="yellow" id="pjgb_ajfe_1"/>
    <route edges="pjgb ajfj" color="yellow" id="pjgb_ajfj_1"/>
    <route edges="pjgb ajfra ajfc jsb" color="yellow" id="pjgb_jsb_1"/>
    <flow id="flow_0" begin="0.00" route="ajfa_ajfe_3" end="3600.00" number="100"/>
    <flow id="flow_1" begin="0.00" route="ajfa_ajfj_3" end="3600.00" number="100"/>
    <flow id="flow_2" begin="0.00" route="ajfa_jsb_3" end="3600.00" number="100"/>
    <flow id="flow_3" begin="0.00" route="ajfa_pjga_3" end="3600.00" number="100"/>
    <flow id="flow_4" begin="0.00" route="ajff_ajfe_3" end="3600.00" number="100"/>
    <flow id="flow_5" begin="0.00" route="ajff_ajfj_3" end="3600.00" number="100"/>
    <flow id="flow_6" begin="0.00" route="ajff_jsb_3" end="3600.00" number="100"/>
    <flow id="flow_7" begin="0.00" route="ajff_jsd_3" end="3600.00" number="100"/>
    <flow id="flow_8" begin="0.00" route="ajff_pjga_3" end="3600.00" number="100"/>
    <flow id="flow_9" begin="0.00" route="ajfj_jsd_3" end="3600.00" number="100"/>
    <flow id="flow_10" begin="0.00" route="ervb_jsd_1" end="3600.00" number="100"/>
    <flow id="flow_11" begin="0.00" route="jsa_ajfe_1" end="3600.00" number="100"/>
    <flow id="flow_12" begin="0.00" route="jsa_ajfj_1" end="3600.00" number="100"/>
    <flow id="flow_13" begin="0.00" route="jsa_jsd_1" end="3600.00" number="100"/>
    <flow id="flow_14" begin="0.00" route="jse_ajfe_2" end="3600.00" number="100"/>
    <flow id="flow_15" begin="0.00" route="jse_ajfj_2" end="3600.00" number="100"/>
    <flow id="flow_16" begin="0.00" route="jse_jsb_2" end="3600.00" number="100"/>
    <flow id="flow_17" begin="0.00" route="pjgb_ajfe_1" end="3600.00" number="100"/>
    <flow id="flow_18" begin="0.00" route="pjgb_ajfj_1" end="3600.00" number="100"/>
    <flow id="flow_19" begin="0.00" route="pjgb_jsb_1" end="3600.00" number="100"/>
</routes>