<?xml version="1.0" encoding="UTF-8"?>

<!-- generated on 2021-08-31 11:14:23 by Eclipse SUMO GUI Version 1.10.0
-->

<configuration xmlns:xsi="http://www.w3.org/2001/XMLSchema-instance" xsi:noNamespaceSchemaLocation="http://sumo.dlr.de/xsd/sumoConfiguration.xsd">

    <input>
        <net-file value="malha.net.xml"/>
        <route-files value="rotas.rou.xml"/>
    </input>
    <output>
        <full-output value="full.output.xml"/>
    </output>

</configuration>
